ipss.tutorial/python_integration/results/Texas2k_lf_results.txt


                                              Load Flow Results


                                             Max Power Mismatches
                                 Bus              dPmax       Bus              dQmax
                                -------------------------------------------------------
                                Bus7002          0.000000  Bus7159          0.000000 (pu)
                                                0.0000010                   0.000006 (mva)

  X------- FROM BUS ------X AREA  VOLT            GEN    LOAD    SHUNT  X---------- TO BUS ----------X                        TRANSFORMER    RATING A
    BUS# X-- NAME --X BASKV ZONE  PU/KV  ANGLE  MW/MVAR MW/MVAR MW/MVAR   BUS# X-- NAME --X BASKV AREA CKT    MW     MVAR    RATIO   ANGLE   %I   MVA

    1001 ODESSA 2 0  115.00    1 0.9781  -26.5     0.0     20.8     0.0 -----------------------------------------------------------------------------
                               9 112.48            0.0      5.9     0.0   1064 ODESSA 3 0  115.00    1  1     68.3     9.5                   31   221
                                                                          1064 ODESSA 3 0  115.00    1  2     68.3     9.5                   31   221
                                                                          1071 ODESSA 1 0  115.00    1  1    -78.6   -12.5                   36   221
                                                                          1071 ODESSA 1 0  115.00    1  2    -78.6   -12.5                   36   221

    1002 PRESIDIO 2 0115.00    1 1.0104  -21.2     0.0     15.4     0.0 -----------------------------------------------------------------------------
                               9 116.20            0.0      4.4     0.0   1007 VAN HORN 0  115.00    1  1      1.5    -5.4                    6    98
                                                                          1010 PRESIDIO 1 0115.00    1  1    -16.9     1.1                   17    98

    1003 O DONNELL ~1115.00    1 1.0080  -24.4     0.0      0.0     0.0 -----------------------------------------------------------------------------
                               9 115.92            0.0      0.0     0.0   1004 O DONNELL ~2230.00    1  1     24.4    -2.3  1.000UN          10   250
                                                                          1022 O DONNELL ~3115.00    1  1    -63.0     0.4                   28   221
                                                                          1055 ODONNELL 0  115.00    1  1     38.6     2.0                   39    98

    1004 O DONNELL ~2230.00    1 1.0100  -26.0   158.3      0.0     0.0 -----------------------------------------------------------------------------
                               9 232.30          -48.2R     0.0     0.0   3133 SNYDER 2 0  230.00    3  1    182.6   -51.2                   36   523
                                                                          1003 O DONNELL ~1115.00    1  1    -24.3     3.0  1.000LK          10   250

    1005 BIG SPRING~8115.00    1 1.0086  -20.3     0.0      0.0     0.0 -----------------------------------------------------------------------------
                               9 115.99            0.0      0.0     0.0   1006 BIG SPRING~913.800    1  1    -25.7     7.5  1.000UN          64    42
                                                                          1025 BIG SPRIN~14115.00    1  1    -42.3    -8.1                   29   149
                                                                          1061 BIG SPRIN~10115.00    1  1     77.5   -22.2                   36   221
                                                                          1067 BIG SPRIN~13115.00    1  1     -9.5    22.9                   25    98

    1006 BIG SPRING~913.800    1 1.0000  -18.1    25.7      0.0     0.0 -----------------------------------------------------------------------------
                               9 13.800           -6.4R     0.0     0.0   1005 BIG SPRING~8115.00    1  1     25.7    -6.4  1.000LK          63    42

    1007 VAN HORN 0  115.00    1 1.0196  -21.7     0.0      7.0     0.0 -----------------------------------------------------------------------------
                               9 117.25            0.0      2.0     0.0   1002 PRESIDIO 2 0115.00    1  1     -1.4    -1.0                    2    98
                                                                          1015 MARFA 0     115.00    1  1     -1.6    -2.5                    3    98
                                                                          1031 FORT DAVIS 0115.00    1  1     -4.0     1.7                    4    98

    1008 IRAAN 2 0   115.00    1 1.0107  -11.1     0.0      0.0     0.0 -----------------------------------------------------------------------------
                               9 116.23            0.0      0.0     0.0   1009 IRAAN 2 1   13.800    1  1    -61.7    16.2  1.000UN          53   120
                                                                          1032 MCCAMEY 1 0 115.00    1  1     59.8    -3.1                   61    98
                                                                          1069 IRAAN 1 0   115.00    1  1      1.9   -13.1                    9   149

    1009 IRAAN 2 1   13.800    1 1.0000   -7.8    61.9      0.0     0.0 -----------------------------------------------------------------------------
                               9 13.800          -12.4R     0.0     0.0   1008 IRAAN 2 0   115.00    1  1     61.9   -12.4  1.000LK          53   120

    1010 PRESIDIO 1 0115.00    1 1.0173  -19.9     0.0      0.0     0.0 -----------------------------------------------------------------------------
                               9 116.99            0.0      0.0     0.0   1002 PRESIDIO 2 0115.00    1  1     17.0    -2.5                   18    98
                                                                          1011 PRESIDIO 1 122.000    1  1    -10.0     0.3  1.000UN          22    46
                                                                          1015 MARFA 0     115.00    1  1      9.1    -4.4                   10    98
                                                                          1030 ALPINE 0    115.00    1  1    -16.1     4.4                   17    98

    1011 PRESIDIO 1 122.000    1 1.0175  -18.1    10.0      0.0     0.0 -----------------------------------------------------------------------------
                               9 22.385            0.0      0.0     0.0   1010 PRESIDIO 1 0115.00    1  1     10.0     0.0  1.000LK          22    46

    1012 SANDERSON 0 115.00    1 1.0062  -27.1     0.0      3.0     0.0 -----------------------------------------------------------------------------
                               9 115.71            0.0      0.8     0.0   1087 SHEFFIELD 0 115.00    1  1    -70.0    15.6                   48   149
                                                                          3051 DEL RIO 1   115.00    3  1     67.1    -6.9                   45   149

    1013 MONAHANS 2 0115.00    1 1.0039  -18.8     0.0     29.2     0.0 -----------------------------------------------------------------------------
                               9 115.45            0.0      8.3     0.0   1031 FORT DAVIS 0115.00    1  1     13.3    -6.5                   15    98
                                                                          1047 MONAHANS 1 0115.00    1  1    -58.2    10.5                   27   221
                                                                          1086 PECOS 0     115.00    1  1     15.7   -12.3                   20    98

    1014 GRANDFALLS 0115.00    1 1.0064  -15.0     0.0      2.2     0.0 -----------------------------------------------------------------------------
                               9 115.74            0.0      0.6     0.0   1047 MONAHANS 1 0115.00    1  1     19.8    -3.6                   14   149
                                                                          1083 FORT STOCK~4115.00    1  1    -22.1     3.0                   15   149

    1015 MARFA 0     115.00    1 1.0201  -21.4     0.0      7.5     0.0 -----------------------------------------------------------------------------
                               9 117.31            0.0      2.1     0.0   1007 VAN HORN 0  115.00    1  1      1.6    -2.8                    3    98
                                                                          1010 PRESIDIO 1 0115.00    1  1     -9.1     0.6                    9    98

    1016 GARDEN CIT~1115.00    1 1.0183  -19.4     0.0      2.9     0.0 -----------------------------------------------------------------------------
                               9 117.11            0.0      0.8     0.0   1034 BIG SPRING~6115.00    1  1    -13.3    13.2                   19    98
                                                                          1068 MIDLAND 1 0 115.00    1  1     10.4    17.1                   20    98

    1017 ODESSA 4 0  115.00    1 0.9808  -25.2     0.0     18.3     0.0 -----------------------------------------------------------------------------
                               9 112.79            0.0      5.2     0.0   1018 NOTREES 0   115.00    1  1    -27.3    -1.3                   28    98
                                                                          1029 MIDLAND 3 0 115.00    1  1     40.0   -25.3                   32   149
                                                                          1037 ODESSA 5 0  115.00    1  1     58.3     9.3                   27   221
                                                                          1047 MONAHANS 1 0115.00    1  1    -89.3    12.1                   60   150

    1018 NOTREES 0   115.00    1 0.9907  -23.9     0.0      0.1     0.0 -----------------------------------------------------------------------------
                               9 113.93            0.0      0.0     0.0   1017 ODESSA 4 0  115.00    1  1     27.6     0.9                   28    98
                                                                          1024 ODESSA 6 0  115.00    1  1    -27.6    -0.9                   28    98

    1019 MIDLAND 4 0 115.00    1 0.9995  -26.1     0.0     61.8     0.0 -----------------------------------------------------------------------------
                               9 114.94            0.0     17.5     0.0   1040 ANDREWS 0   115.00    1  1    -14.8     4.8                   10   149
                                                                          1045 MIDLAND 5 0 115.00    1  1    106.7    17.0                   49   221
                                                                          1071 ODESSA 1 0  115.00    1  1    -45.6    57.8                   33   225
                                                                          1071 ODESSA 1 0  115.00    1  2    -45.6    57.8                   33   225
                                                                          1084 BIG SPRING~3115.00    1  1    -62.5   -12.0                   29   220

    1020 BIG SPRING~1115.00    1 1.0295  -19.5     0.0      0.0     0.0 -----------------------------------------------------------------------------
                               9 118.40            0.0      0.0     0.0   1021 BIG SPRING~213.800    1  1   -148.9    53.9  1.000UN          63   250
                                                                          1025 BIG SPRIN~14115.00    1  1    -49.9    31.9                   40   149
                                                                          1084 BIG SPRING~3115.00    1  1     32.9   -22.5                   18   221
                                                                          3059 STERLING C~2115.00    3  1     64.4     8.6                   22   300
                                                                          3130 SAN ANGELO~3115.00    3  1    101.5     9.5                   46   221

    1021 BIG SPRING~213.800    1 1.0000  -12.9   149.6      0.0     0.0 -----------------------------------------------------------------------------
                               9 13.800          -35.4R     0.0     0.0   1020 BIG SPRING~1115.00    1  1    149.6   -35.4  1.000LK          62   250

    1022 O DONNELL ~3115.00    1 1.0110  -23.6     0.0      0.0     0.0 -----------------------------------------------------------------------------
                               9 116.27            0.0      0.0     0.0   1003 O DONNELL ~1115.00    1  1     63.2     0.0                   29   221
                                                                          1023 O DONNELL ~413.800    1  1   -134.0    17.5  1.000UN          54   250
                                                                          1028 COAHOMA 0   115.00    1  1     35.4    -8.8                   17   221
                                                                          1028 COAHOMA 0   115.00    1  2     35.4    -8.8                   17   221

    1023 O DONNELL ~413.800    1 1.0100  -14.7   135.0      0.0     0.0 -----------------------------------------------------------------------------
                               9 13.938            3.5R     0.0     0.0   1022 O DONNELL ~3115.00    1  1    135.0     3.5  1.000LK          54   250

    1024 ODESSA 6 0  115.00    1 0.9942  -22.9     0.0     63.0     0.0 -----------------------------------------------------------------------------
                               9 114.34            0.0     17.9     0.0   1018 NOTREES 0   115.00    1  1     27.7     0.6                   28    98
                                                                          1090 GOLDSMITH 0 115.00    1  1    -90.7   -18.4                   62   149

    1025 BIG SPRIN~14115.00    1 1.0230  -18.5     0.0      0.0     0.0 -----------------------------------------------------------------------------
                               9 117.65            0.0      0.0     0.0   1005 BIG SPRING~8115.00    1  1     42.6     8.4                   29   149
                                                                          1020 BIG SPRING~1115.00    1  1     50.2   -31.3                   40   149
                                                                          1026 BIG SPRIN~1513.800    1  1    -92.8    22.9  1.000UN          48   200

    1026 BIG SPRIN~1513.800    1 1.0000   -9.0    93.2      0.0     0.0 -----------------------------------------------------------------------------
                               9 13.800           -7.2R     0.0     0.0   1025 BIG SPRIN~14115.00    1  1     93.2    -7.2  1.000LK          47   200

    1027 MIDLAND 2 0 115.00    1 1.0090  -29.9     0.0    101.2     0.0 -----------------------------------------------------------------------------
                               9 116.04            0.0     28.7     0.0   1045 MIDLAND 5 0 115.00    1  1    -18.2    32.7                   17   221
                                                                          1056 LENORAH 0   115.00    1  1    -83.0    15.0                   34   250

    1028 COAHOMA 0   115.00    1 1.0137  -25.5     0.0     10.0     0.0 -----------------------------------------------------------------------------
                               9 116.58            0.0      2.8     0.0   1022 O DONNELL ~3115.00    1  1    -35.3     8.1                   16   221
                                                                          1022 O DONNELL ~3115.00    1  2    -35.3     8.1                   16   221
                                                                          3109 FLUVANNA 1 0115.00    3  1     60.5   -19.1                   25   250

    1029 MIDLAND 3 0 115.00    1 1.0049  -28.9     0.0     83.2     0.0 -----------------------------------------------------------------------------
                               9 115.56            0.0     23.6     0.0   1017 ODESSA 4 0  115.00    1  1    -39.3    26.4                   32   149
                                                                          1056 LENORAH 0   115.00    1  1    -43.9    -9.6                   20   221

    1030 ALPINE 0    115.00    1 1.0036  -16.3     0.0     24.6     0.0 -----------------------------------------------------------------------------
                               9 115.42            0.0      7.0     0.0   1010 PRESIDIO 1 0115.00    1  1     16.3    -8.4                   19    98
                                                                          1038 FORT STOCK~1115.00    1  1    -24.1     2.0                   25    98
                                                                          1083 FORT STOCK~4115.00    1  1    -16.8    -0.6                   17    98

    1031 FORT DAVIS 0115.00    1 1.0111  -21.0     0.0      9.2     0.0 -----------------------------------------------------------------------------
                               9 116.28            0.0      2.6     0.0   1007 VAN HORN 0  115.00    1  1      4.0    -5.9                    7    98
                                                                          1013 MONAHANS 2 0115.00    1  1    -13.3     3.3                   14    98

    1032 MCCAMEY 1 0 115.00    1 0.9888  -14.9     0.0      0.0     0.0 -----------------------------------------------------------------------------
                               9 113.72            0.0      0.0     0.0   1008 IRAAN 2 0   115.00    1  1    -58.2     5.5                   60    98
                                                                          1033 MCCAMEY 1 1 230.00    1  1    118.2   -16.4  1.000UN          70   170
                                                                          1036 CRANE 0     115.00    1  1      7.2    -4.4                    9    98
                                                                          1038 FORT STOCK~1115.00    1  1    -67.2    15.3                   44   155

    1033 MCCAMEY 1 1 230.00    1 1.0000  -19.6   208.5      0.0     0.0 -----------------------------------------------------------------------------
                               9 230.00          -93.8R     0.0     0.0   1081 ODESSA 1 10 230.00    1  1    131.7   -54.0                   26   548
                                                                          3050 DEL RIO 0   230.00    3  1    194.6   -16.1                   30   647
                                                                          1032 MCCAMEY 1 0 115.00    1  1   -117.8    26.3  1.000LK          71   170

    1034 BIG SPRING~6115.00    1 1.0058  -18.4     0.0      0.0     0.0 -----------------------------------------------------------------------------
                               9 115.66            0.0      0.0     0.0   1016 GARDEN CIT~1115.00    1  1     13.3   -14.4                   20    98
                                                                          1035 BIG SPRING~713.800    1  1    -67.3    12.3  1.000UN          53   130
                                                                          1067 BIG SPRIN~13115.00    1  1     53.9     2.1                   55    98

    1035 BIG SPRING~713.800    1 1.0000  -15.1    67.5      0.0     0.0 -----------------------------------------------------------------------------
                               9 13.800           -8.3R     0.0     0.0   1034 BIG SPRING~6115.00    1  1     67.5    -8.3  1.000LK          52   130

    1036 CRANE 0     115.00    1 0.9917  -15.5     0.0     13.6     0.0 -----------------------------------------------------------------------------
                               9 114.05            0.0      3.9     0.0   1032 MCCAMEY 1 0 115.00    1  1     -7.2     2.9                    8    98
                                                                          1088 MCCAMEY 2 0 115.00    1  1     -6.4    -6.7                    9    98

    1037 ODESSA 5 0  115.00    1 0.9733  -26.3     0.0    102.2     0.0 -----------------------------------------------------------------------------
                               9 111.92            0.0     29.0     0.0   1017 ODESSA 4 0  115.00    1  1    -58.0    -8.6                   27   221
                                                                          1071 ODESSA 1 0  115.00    1  1    -44.2   -20.4                   16   300

    1038 FORT STOCK~1115.00    1 1.0050  -10.3     0.0      0.0     0.0 -----------------------------------------------------------------------------
                               9 115.57            0.0      0.0     0.0   1030 ALPINE 0    115.00    1  1     24.6    -5.9                   26    98
                                                                          1032 MCCAMEY 1 0 115.00    1  1     69.4   -11.4                   45   155
                                                                          1039 FORT STOCK~222.000    1  1   -110.4    13.6  1.000UN          56   200
                                                                          1082 FORT STOCK~3115.00    1  1    -63.5    25.1                   46   149
                                                                          1083 FORT STOCK~4115.00    1  1     79.9   -21.4                   37   221

    1039 FORT STOCK~222.000    1 1.0000   -4.8   110.6      0.0     0.0 -----------------------------------------------------------------------------
                               9 22.000           -3.1R     0.0     0.0   1038 FORT STOCK~1115.00    1  1    110.6    -3.1  1.000LK          55   200

    1040 ANDREWS 0   115.00    1 0.9939  -24.2     0.0     44.4     0.0 -----------------------------------------------------------------------------
                               9 114.30            0.0     12.6     0.0   1019 MIDLAND 4 0 115.00    1  1     14.9    -7.7                   11   149
                                                                          1090 GOLDSMITH 0 115.00    1  1    -59.3    -4.8                   40   149

    1041 FORSAN 0    115.00    1 1.0037  -19.3     0.0      0.0     0.0 -----------------------------------------------------------------------------
                               9 115.42            0.0      0.0     0.0   1042 FORSAN 1    13.800    1  1      0.0    -0.0  1.000UN           0   145
                                                                          1043 FORSAN 2    13.800    1  1    -44.0     5.2  1.000UN          47    95
                                                                          1065 BIG SPRING~4115.00    1  1    -13.6    -9.7                   17    98
                                                                          1067 BIG SPRIN~13115.00    1  1     57.6     4.5                   39   149

    1042 FORSAN 1    13.800    1 1.0037  -19.3     0.0      0.0     0.0 -----------------------------------------------------------------------------
                               9 13.851            0.0      0.0     0.0   1041 FORSAN 0    115.00    1  1      0.0    -0.0  1.000LK           0   145

    1043 FORSAN 2    13.800    1 1.0000  -16.1    44.1      0.0     0.0 -----------------------------------------------------------------------------
                               9 13.800           -2.7R     0.0     0.0   1041 FORSAN 0    115.00    1  1     44.1    -2.7  1.000LK          47    95

    1044 BIG LAKE 0  115.00    1 1.0161  -30.1     0.0     14.7     0.0 -----------------------------------------------------------------------------
                               9 116.85            0.0      4.2     0.0   3019 CHRISTOVAL 1115.00    3  1     47.6   -15.8                   34   149
                                                                          3130 SAN ANGELO~3115.00    3  1    -62.3    11.6                   29   221

    1045 MIDLAND 5 0 115.00    1 0.9775  -28.3     0.0     98.6     0.0 -----------------------------------------------------------------------------
                               9 112.42            0.0     27.9     0.0   1019 MIDLAND 4 0 115.00    1  1   -104.9   -13.1                   48   221
                                                                          1027 MIDLAND 2 0 115.00    1  1     18.5   -32.8                   17   221
                                                                          1064 ODESSA 3 0  115.00    1  1    -12.2    18.0                   10   221

    1046 OZONA 0     115.00    1 1.0164  -25.1     0.0     11.1     0.0 -----------------------------------------------------------------------------
                               9 116.89            0.0      3.1     0.0   1087 SHEFFIELD 0 115.00    1  1    -77.7    21.4                   54   149
                                                                          3009 SONORA 0    115.00    3  1     66.6   -12.2                   45   149

    1047 MONAHANS 1 0115.00    1 1.0033  -16.7     0.0      0.0     0.0 -----------------------------------------------------------------------------
                               9 115.38            0.0      0.0     0.0   1013 MONAHANS 2 0115.00    1  1     58.6    -9.6                   27   221
                                                                          1014 GRANDFALLS 0115.00    1  1    -19.7     1.7                   13   149
                                                                          1017 ODESSA 4 0  115.00    1  1     92.4    -1.2                   62   150
                                                                          1048 MONAHANS 1 118.000    1  1      0.0    -0.0  1.000UN           0   390
                                                                          1049 MONAHANS 1 218.000    1  1      0.0    -0.0  1.000UN           0   390
                                                                          1050 MONAHANS 1 318.000    1  1    -89.1    10.1  1.000UN          72   124
                                                                          1051 MONAHANS 1 418.000    1  1    -89.0    11.6  1.000UN          77   117
                                                                          1052 MONAHANS 1 518.000    1  1    -89.1    11.3  1.000UN          82   110
                                                                          1053 MONAHANS 1 6230.00    1  1     78.8    -8.7  1.000UN          32   250
                                                                          1085 KERMIT 0    115.00    1  1     57.2   -15.3                   27   221

    1048 MONAHANS 1 118.000    1 1.0033  -16.7     0.0      0.0     0.0 -----------------------------------------------------------------------------
                               9 18.060            0.0      0.0     0.0   1047 MONAHANS 1 0115.00    1  1      0.0    -0.0  1.000LK           0   390

    1049 MONAHANS 1 218.000    1 1.0033  -16.7     0.0      0.0     0.0 -----------------------------------------------------------------------------
                               9 18.060            0.0      0.0     0.0   1047 MONAHANS 1 0115.00    1  1      0.0    -0.0  1.000LK           0   390

    1050 MONAHANS 1 318.000    1 1.0000  -11.7    89.4      0.0     0.0 -----------------------------------------------------------------------------
                               9 18.000           -2.2R     0.0     0.0   1047 MONAHANS 1 0115.00    1  1     89.4    -2.2  1.000LK          72   124

    1051 MONAHANS 1 418.000    1 1.0000  -10.2    89.4      0.0     0.0 -----------------------------------------------------------------------------
                               9 18.000           -1.4R     0.0     0.0   1047 MONAHANS 1 0115.00    1  1     89.4    -1.4  1.000LK          76   117

    1052 MONAHANS 1 518.000    1 1.0000  -12.5    89.4      0.0     0.0 -----------------------------------------------------------------------------
                               9 18.000           -4.7R     0.0     0.0   1047 MONAHANS 1 0115.00    1  1     89.4    -4.7  1.000LK          81   110

    1053 MONAHANS 1 6230.00    1 1.0115  -20.7     0.0      0.0     0.0 -----------------------------------------------------------------------------
                               9 232.65            0.0      0.0     0.0   1081 ODESSA 1 10 230.00    1  1     78.6   -14.2                   15   548
                                                                          1047 MONAHANS 1 0115.00    1  1    -78.6    14.2  1.000LK          32   250

    1054 STANTON 0   115.00    1 1.0092  -27.2     0.0     15.0     0.0 -----------------------------------------------------------------------------
                               9 116.06            0.0      4.2     0.0   1056 LENORAH 0   115.00    1  1    -21.9   -12.4                   17   149
                                                                          1089 LAMESA 0    115.00    1  1      6.9     8.1                   11    98

    1055 ODONNELL 0  115.00    1 1.0012  -25.2     0.0      4.0     0.0 -----------------------------------------------------------------------------
                               9 115.14            0.0      1.1     0.0   1003 O DONNELL ~1115.00    1  1    -38.4    -1.9                   39    98
                                                                          1089 LAMESA 0    115.00    1  1     34.4     0.8                   35    98

    1056 LENORAH 0   115.00    1 1.0252  -26.2     0.0      0.0     0.0 -----------------------------------------------------------------------------
                               9 117.90            0.0      0.0     0.0   1027 MIDLAND 2 0 115.00    1  1     85.2   -10.7                   34   250
                                                                          1029 MIDLAND 3 0 115.00    1  1     44.3    10.1                   21   221
                                                                          1054 STANTON 0   115.00    1  1     22.0    11.4                   17   149
                                                                          1057 LENORAH 1   18.000    1  1      0.0    -0.0  1.000UN           0   160
                                                                          1061 BIG SPRIN~10115.00    1  1    -60.9    24.7                   44   150
                                                                          1065 BIG SPRING~4115.00    1  1    -90.7    35.8                   39   250

    1057 LENORAH 1   18.000    1 1.0252  -26.2     0.0      0.0     0.0 -----------------------------------------------------------------------------
                               9 18.454            0.0      0.0     0.0   1056 LENORAH 0   115.00    1  1      0.0    -0.0  1.000LK           0   160

    1058 IRAAN 3 0   115.00    1 1.0132  -13.7     0.0     13.5     0.0 -----------------------------------------------------------------------------
                               9 116.52            0.0      3.8     0.0   1059 IRAAN 3 1   22.000    1  1      0.0    -0.0  1.000UN           0    33
                                                                          1060 IRAAN 3 2   22.000    1  1      0.0    -0.0  1.000UN           0    27
                                                                          1069 IRAAN 1 0   115.00    1  1    -84.3     9.7                   38   221
                                                                          1069 IRAAN 1 0   115.00    1  2    -84.3     9.7                   38   221
                                                                          1087 SHEFFIELD 0 115.00    1  1     77.6   -11.6                   35   221
                                                                          1087 SHEFFIELD 0 115.00    1  2     77.6   -11.6                   35   221

    1059 IRAAN 3 1   22.000    1 1.0132  -13.7     0.0      0.0     0.0 -----------------------------------------------------------------------------
                               9 22.291            0.0      0.0     0.0   1058 IRAAN 3 0   115.00    1  1      0.0    -0.0  1.000LK           0    33

    1060 IRAAN 3 2   22.000    1 1.0132  -13.7     0.0      0.0     0.0 -----------------------------------------------------------------------------
                               9 22.291            0.0      0.0     0.0   1058 IRAAN 3 0   115.00    1  1      0.0    -0.0  1.000LK           0    27

    1061 BIG SPRIN~10115.00    1 1.0097  -21.5     0.0      0.0     0.0 -----------------------------------------------------------------------------
                               9 116.11            0.0      0.0     0.0   1005 BIG SPRING~8115.00    1  1    -77.1    23.4                   36   221
                                                                          1056 LENORAH 0   115.00    1  1     61.9   -21.3                   44   150
                                                                          1062 BIG SPRIN~1113.800    1  1      0.0    -0.0  1.000UN           0    29
                                                                          1063 BIG SPRIN~1213.800    1  1      0.0    -0.0  1.000UN           0   260
                                                                          3042 SILVER 1    115.00    3  1     15.2    -2.1                    7   221

    1062 BIG SPRIN~1113.800    1 1.0097  -21.5     0.0      0.0     0.0 -----------------------------------------------------------------------------
                               9 13.933            0.0      0.0     0.0   1061 BIG SPRIN~10115.00    1  1      0.0    -0.0  1.000LK           0    29

    1063 BIG SPRIN~1213.800    1 1.0097  -21.5     0.0      0.0     0.0 -----------------------------------------------------------------------------
                               9 13.933            0.0      0.0     0.0   1061 BIG SPRIN~10115.00    1  1      0.0    -0.0  1.000LK           0   260

    1064 ODESSA 3 0  115.00    1 0.9711  -28.0     0.0    123.8     0.0 -----------------------------------------------------------------------------
                               9 111.68            0.0     35.1     0.0   1001 ODESSA 2 0  115.00    1  1    -68.0    -8.3                   31   221
                                                                          1001 ODESSA 2 0  115.00    1  2    -68.0    -8.3                   31   221
                                                                          1045 MIDLAND 5 0 115.00    1  1     12.2   -18.4                   10   221

    1065 BIG SPRING~4115.00    1 1.0063  -19.2     0.0      0.0     0.0 -----------------------------------------------------------------------------
                               9 115.72            0.0      0.0     0.0   1041 FORSAN 0    115.00    1  1     13.6     9.4                   17    98
                                                                          1056 LENORAH 0   115.00    1  1     92.7   -26.0                   39   250
                                                                          1066 BIG SPRING~513.800    1  1   -106.3    16.6  1.000UN          54   200

    1066 BIG SPRING~513.800    1 1.0000  -11.6   106.9      0.0     0.0 -----------------------------------------------------------------------------
                               9 13.800           -2.5R     0.0     0.0   1065 BIG SPRING~4115.00    1  1    106.9    -2.5  1.000LK          53   200

    1067 BIG SPRIN~13115.00    1 1.0007  -19.9     0.0    101.6     0.0 -----------------------------------------------------------------------------
                               9 115.08            0.0     28.8     0.0   1005 BIG SPRING~8115.00    1  1      9.7   -23.2                   26    98
                                                                          1034 BIG SPRING~6115.00    1  1    -53.7    -1.4                   55    98
                                                                          1041 FORSAN 0    115.00    1  1    -57.5    -4.2                   39   149

    1068 MIDLAND 1 0 115.00    1 0.9871  -20.0     0.0     59.4     0.0 -----------------------------------------------------------------------------
                               9 113.52            0.0     16.8     0.0   1016 GARDEN CIT~1115.00    1  1    -10.3   -18.8                   22    98
                                                                          1088 MCCAMEY 2 0 115.00    1  1    -49.1     2.0                   50    98

    1069 IRAAN 1 0   115.00    1 1.0152  -11.2     0.0      0.0     0.0 -----------------------------------------------------------------------------
                               9 116.74            0.0      0.0     0.0   1008 IRAAN 2 0   115.00    1  1     -1.9    12.6                    9   149
                                                                          1058 IRAAN 3 0   115.00    1  1     84.8    -7.0                   39   221
                                                                          1058 IRAAN 3 0   115.00    1  2     84.8    -7.0                   39   221
                                                                          1070 IRAAN 1 1   13.800    1  1   -119.9   -26.2  1.000UN          56   220
                                                                          1082 FORT STOCK~3115.00    1  1    -47.8    27.6                   37   149

    1070 IRAAN 1 1   13.800    1 1.0400   -6.7   120.4      0.0     0.0 -----------------------------------------------------------------------------
                               9 14.352           36.5R     0.0     0.0   1069 IRAAN 1 0   115.00    1  1    120.4    36.5  1.000LK          57   220

    1071 ODESSA 1 0  115.00    1 0.9853  -25.2     0.0     91.5     0.0 -----------------------------------------------------------------------------
                               9 113.31            0.0     25.9     0.0   1001 ODESSA 2 0  115.00    1  1     78.9    13.8                   36   221
                                                                          1001 ODESSA 2 0  115.00    1  2     78.9    13.8                   36   221
                                                                          1019 MIDLAND 4 0 115.00    1  1     45.8   -56.8                   32   225
                                                                          1019 MIDLAND 4 0 115.00    1  2     45.8   -56.8                   32   225
                                                                          1037 ODESSA 5 0  115.00    1  1     44.4    20.7                   16   300
                                                                          1072 ODESSA 1 1  18.000    1  1   -190.2    -1.0  1.000UN          79   240
                                                                          1073 ODESSA 1 2  18.000    1  1   -190.3    16.2  1.000UN          80   240
                                                                          1074 ODESSA 1 3  18.000    1  1   -190.0    12.3  1.000UN          79   240
                                                                          1075 ODESSA 1 4  18.000    1  1   -190.7     1.2  1.000UN          79   240
                                                                          1076 ODESSA 1 5  18.000    1  1      0.0    -0.0  1.000UN           0   230
                                                                          1077 ODESSA 1 6  18.000    1  1      0.0    -0.0  1.000UN           0   230
                                                                          1078 ODESSA 1 7  18.000    1  1    -95.0    -1.4  1.000UN          69   137
                                                                          1079 ODESSA 1 8  500.00    1  1    650.4    45.4  1.000UN          33  2000
                                                                          1080 ODESSA 1 9  18.000    1  1    -94.4     2.8  1.000UN          69   136
                                                                          1081 ODESSA 1 10 230.00    1  1    -85.2   -36.1  1.000UN          26   350

    1072 ODESSA 1 1  18.000    1 1.0100  -15.8   192.1      0.0     0.0 -----------------------------------------------------------------------------
                               9 18.180           32.9R     0.0     0.0   1071 ODESSA 1 0  115.00    1  1    192.1    32.9  1.000LK          81   240

    1073 ODESSA 1 2  18.000    1 1.0100   -9.4   192.1      0.0     0.0 -----------------------------------------------------------------------------
                               9 18.180           37.3R     0.0     0.0   1071 ODESSA 1 0  115.00    1  1    192.1    37.3  1.000LK          82   240

    1074 ODESSA 1 3  18.000    1 1.0100  -11.4   192.1      0.0     0.0 -----------------------------------------------------------------------------
                               9 18.180           34.2R     0.0     0.0   1071 ODESSA 1 0  115.00    1  1    192.1    34.2  1.000LK          81   240

    1075 ODESSA 1 4  18.000    1 1.0100  -14.2   192.1      0.0     0.0 -----------------------------------------------------------------------------
                               9 18.180           36.2R     0.0     0.0   1071 ODESSA 1 0  115.00    1  1    192.1    36.2  1.000LK          81   240

    1076 ODESSA 1 5  18.000    1 0.9853  -25.2     0.0      0.0     0.0 -----------------------------------------------------------------------------
                               9 17.736            0.0      0.0     0.0   1071 ODESSA 1 0  115.00    1  1      0.0    -0.0  1.000LK           0   230

    1077 ODESSA 1 6  18.000    1 0.9853  -25.2     0.0      0.0     0.0 -----------------------------------------------------------------------------
                               9 17.736            0.0      0.0     0.0   1071 ODESSA 1 0  115.00    1  1      0.0    -0.0  1.000LK           0   230

    1078 ODESSA 1 7  18.000    1 1.0100  -14.7    95.5      0.0     0.0 -----------------------------------------------------------------------------
                               9 18.180           19.1R     0.0     0.0   1071 ODESSA 1 0  115.00    1  1     95.5    19.1  1.000LK          71   137

    1079 ODESSA 1 8  500.00    1 1.0100  -42.7    95.5      0.0     0.0 -----------------------------------------------------------------------------
                               9 505.00         -589.6R     0.0     0.0   3048 ROSCOE 5 2  500.00    3  1    254.6  -270.7                   16  2300
                                                                          3048 ROSCOE 5 2  500.00    3  2    254.6  -270.7                   16  2300
                                                                          5120 BROWNWOOD 0 500.00    5  1    236.1  -204.2                   14  2300
                                                                          1071 ODESSA 1 0  115.00    1  1   -649.9   156.0  1.000LK          33  2000

    1080 ODESSA 1 9  18.000    1 1.0100  -14.2    95.5      0.0     0.0 -----------------------------------------------------------------------------
                               9 18.180           15.8R     0.0     0.0   1071 ODESSA 1 0  115.00    1  1     95.5    15.8  1.000LK          71   136

    1081 ODESSA 1 10 230.00    1 1.0128  -22.0     0.0      0.0     0.0 -----------------------------------------------------------------------------
                               9 232.93            0.0      0.0     0.0   1033 MCCAMEY 1 1 230.00    1  1   -131.1    54.2                   26   548
                                                                          1053 MONAHANS 1 6230.00    1  1    -78.5     9.9                   14   548
                                                                          3058 STERLING C~1230.00    3  1    124.2   -36.9                   24   548
                                                                          1071 ODESSA 1 0  115.00    1  1     85.4    42.0  1.000LK          27   350

    1082 FORT STOCK~3115.00    1 1.0000   -8.3   112.5      0.0     0.0 -----------------------------------------------------------------------------
                               9 115.00          -49.7R     0.0     0.0   1038 FORT STOCK~1115.00    1  1     64.0   -23.5                   46   149
                                                                          1069 IRAAN 1 0   115.00    1  1     48.5   -26.1                   37   149

    1083 FORT STOCK~4115.00    1 1.0084  -12.6     0.0     39.9     0.0 -----------------------------------------------------------------------------
                               9 115.96            0.0     11.3     0.0   1014 GRANDFALLS 0115.00    1  1     22.3    -4.8                   15   149
                                                                          1030 ALPINE 0    115.00    1  1     17.0    -4.0                   18    98
                                                                          1038 FORT STOCK~1115.00    1  1    -79.2    24.1                   37   221

    1084 BIG SPRING~3115.00    1 1.0400  -20.8    86.6      0.0     0.0 -----------------------------------------------------------------------------
                               9 119.60           54.7R     0.0     0.0   1019 MIDLAND 4 0 115.00    1  1     63.7    15.9                   30   220
                                                                          1020 BIG SPRING~1115.00    1  1    -32.7    22.5                   18   221
                                                                          3130 SAN ANGELO~3115.00    3  1     55.6    16.3                   26   221

    1085 KERMIT 0    115.00    1 1.0075  -18.8     0.0     21.3     0.0 -----------------------------------------------------------------------------
                               9 115.87            0.0      6.0     0.0   1047 MONAHANS 1 0115.00    1  1    -56.8    16.2                   27   221
                                                                          1086 PECOS 0     115.00    1  1     24.5   -10.4                   18   149
                                                                          1090 GOLDSMITH 0 115.00    1  1     11.0   -11.8                    7   221

    1086 PECOS 0     115.00    1 1.0137  -21.0     0.0     39.7     0.0 -----------------------------------------------------------------------------
                               9 116.57            0.0     11.2     0.0   1013 MONAHANS 2 0115.00    1  1    -15.4    10.5                   19    98
                                                                          1085 KERMIT 0    115.00    1  1    -24.3     9.1                   17   149

    1087 SHEFFIELD 0 115.00    1 1.0164  -18.5     0.0      0.9     0.0 -----------------------------------------------------------------------------
                               9 116.89            0.0      0.3     0.0   1012 SANDERSON 0 115.00    1  1     72.6    -8.7                   49   149
                                                                          1046 OZONA 0     115.00    1  1     79.8   -14.6                   54   149
                                                                          1058 IRAAN 3 0   115.00    1  1    -76.6    16.3                   35   221
                                                                          1058 IRAAN 3 0   115.00    1  2    -76.6    16.3                   35   221

    1088 MCCAMEY 2 0 115.00    1 1.0000  -15.1    56.3      0.0     0.0 -----------------------------------------------------------------------------
                               9 115.00            4.8R     0.0     0.0   1036 CRANE 0     115.00    1  1      6.4     5.1                    8    98
                                                                          1068 MIDLAND 1 0 115.00    1  1     49.9    -0.3                   51    98

    1089 LAMESA 0    115.00    1 0.9831  -27.6     0.0     40.6     0.0 -----------------------------------------------------------------------------
                               9 113.05            0.0     11.5     0.0   1054 STANTON 0   115.00    1  1     -6.8   -10.6                   13    98
                                                                          1055 ODONNELL 0  115.00    1  1    -33.8    -0.9                   35    98

    1090 GOLDSMITH 0 115.00    1 1.0200  -19.8   141.4      0.0     0.0 -----------------------------------------------------------------------------
                               9 117.30           40.3R     0.0     0.0   1024 ODESSA 6 0  115.00    1  1     92.0    22.9                   64   149
                                                                          1040 ANDREWS 0   115.00    1  1     60.4     7.6                   41   149
                                                                          1085 KERMIT 0    115.00    1  1    -11.0     9.7                    7   221

    1091 RALLS 2 0   161.00    1 1.0242  -40.4     0.0     11.6     0.0 -----------------------------------------------------------------------------
                               9 164.90            0.0      3.3     0.0   2029 SILVERTON 0 161.00    2  1     15.1    -1.3                    8   187
                                                                          2048 CROSBYTON 0 161.00    2  1    -11.6    -2.8                    6   187
                                                                          2098 RALLS 1 2   161.00    2  1    -15.2     0.8                    8   187

    2001 PARIS 3 0   161.00    2 1.0036  -61.3     0.0     48.4     0.0 -----------------------------------------------------------------------------
                              11 161.59            0.0     13.7     0.0   2022 PARIS 2 1   161.00    2  1    -64.7    -7.2                   35   187
                                                                          2027 DEPORT 0    161.00    2  1     16.4    -6.5                    9   187

    2002 SAVOY 0     500.00    2 1.0163  -62.4     0.0      0.0     0.0 -----------------------------------------------------------------------------
                              11 508.16            0.0      0.0     0.0   2003 SAVOY 1     161.00    2  1    199.4     6.0  1.000UN          20   981
                                                                          2004 SAVOY 2     13.800    2  1      0.0    -0.0  1.000UN           0   635
                                                                          2005 SAVOY 3     13.800    2  1      0.0    -0.0  1.000UN           0   645
                                                                          2006 SAVOY 4     13.800    2  1      0.0    -0.0  1.000UN           0   636
                                                                          2021 PARIS 2 0   500.00    2  1   -651.7    49.8                   28  2295
                                                                          2101 SHERMAN 1 0 500.00    2  1    452.2   -55.8                   23  2020

    2003 SAVOY 1     161.00    2 1.0153  -64.6     0.0      0.0     0.0 -----------------------------------------------------------------------------
                              11 163.46            0.0      0.0     0.0   2038 ECTOR 0     161.00    2  1     41.5     7.1                   17   251
                                                                          2047 BELLS 0     161.00    2  1    157.9    -8.7                   51   310
                                                                          2002 SAVOY 0     500.00    2  1   -199.3     1.6  1.000LK          20   981

    2004 SAVOY 2     13.800    2 1.0163  -62.4     0.0      0.0     0.0 -----------------------------------------------------------------------------
                              11 14.025            0.0      0.0     0.0   2002 SAVOY 0     500.00    2  1      0.0    -0.0  1.000LK           0   635

    2005 SAVOY 3     13.800    2 1.0163  -62.4     0.0      0.0     0.0 -----------------------------------------------------------------------------
                              11 14.025            0.0      0.0     0.0   2002 SAVOY 0     500.00    2  1      0.0    -0.0  1.000LK           0   645

    2006 SAVOY 4     13.800    2 1.0163  -62.4     0.0      0.0     0.0 -----------------------------------------------------------------------------
                              11 14.025            0.0      0.0     0.0   2002 SAVOY 0     500.00    2  1      0.0    -0.0  1.000LK           0   636

    2007 HONEY GROV~1161.00    2 1.0048  -61.1     0.0      9.5     0.0 -----------------------------------------------------------------------------
                              11 161.78            0.0      2.7     0.0   2114 PARIS 1 1   161.00    2  1    -71.9    -2.3                   29   251
                                                                          2122 TELEPHONE 0 161.00    2  1     62.4    -0.4                   33   187

    2008 MEMPHIS 0   161.00    2 1.0043  -41.4     0.0      8.1     0.0 -----------------------------------------------------------------------------
                              10 161.69            0.0      2.3     0.0   2014 CHILDRESS 0 161.00    2  1     13.7    -6.8                    8   187
                                                                          2052 PANHANDLE~13161.00    2  1    -21.7     4.5                   12   187

    2009 IOWA PARK 0 161.00    2 1.0247  -50.8     0.0     39.1     0.0 -----------------------------------------------------------------------------
                              11 164.98            0.0     11.1     0.0   2049 ELECTRA 0   161.00    2  1    -96.3    21.8                   39   251
                                                                          2082 WICHITA FA~5161.00    2  1     -5.5    54.3                   29   187
                                                                          2109 BURKBURNET~1161.00    2  1     62.6    24.3                   27   250

    2010 VERNON 2 0  161.00    2 1.0295  -43.1     0.0     56.8     0.0 -----------------------------------------------------------------------------
                              10 165.74            0.0     16.1     0.0   2061 VERNON 1 0  161.00    2  1      8.7     0.1                    5   187
                                                                          2079 PADUCAH 0   161.00    2  1    -23.1     2.9                   12   187
                                                                          2091 SEYMOUR 0   161.00    2  1    -42.4    12.0                   24   187

    2011 PANHANDLE ~2500.00    2 1.0279  -40.1     0.0      0.0     0.0 -----------------------------------------------------------------------------
                              10 513.96            0.0      0.0     0.0   2012 PANHANDLE ~3161.00    2  1   -105.9    53.1  1.000UN          26   461
                                                                          2013 PANHANDLE ~418.000    2  1   -150.3   104.6  1.000UN          44   412
                                                                          2127 MIAMI 0     500.00    2  1    256.3  -157.7                   15  2020

    2012 PANHANDLE ~3161.00    2 1.0107  -38.0     0.0      0.0     0.0 -----------------------------------------------------------------------------
                              10 162.73            0.0      0.0     0.0   2041 PANHANDLE ~5161.00    2  1    -73.1    16.5                   40   187
                                                                          2052 PANHANDLE~13161.00    2  1     47.1    -3.2                   25   187
                                                                          2093 PANHANDLE~10161.00    2  1     38.2   -20.9                   23   187
                                                                          2123 PANHANDLE ~1161.00    2  1   -118.2    56.0                   52   251
                                                                          2011 PANHANDLE ~2500.00    2  1    106.0   -48.4  1.000LK          25   461

    2013 PANHANDLE ~418.000    2 1.0000  -37.6   150.5      0.0     0.0 -----------------------------------------------------------------------------
                              10 18.000          -95.4R     0.0     0.0   2011 PANHANDLE ~2500.00    2  1    150.4   -95.4  1.000LK          43   412

    2014 CHILDRESS 0 161.00    2 1.0058  -42.3     0.0     25.4     0.0 -----------------------------------------------------------------------------
                              10 161.93            0.0      7.2     0.0   2008 MEMPHIS 0   161.00    2  1    -13.6     2.4                    7   187
                                                                          2029 SILVERTON 0 161.00    2  1    -11.8    -9.6                    8   187

    2015 FORESTBURG 0161.00    2 1.0154  -64.7     0.0      4.7     0.0 -----------------------------------------------------------------------------
                              11 163.48            0.0      1.3     0.0   2037 LINDSAY 0   161.00    2  1      5.4   -30.6                   17   187
                                                                          5014 DECATUR 0   161.00    5  1    -10.1    29.2                   17   187

    2016 SHERMAN 3 0 161.00    2 1.0160  -70.5     0.0     69.3     0.0 -----------------------------------------------------------------------------
                              11 163.58            0.0     19.6     0.0   2043 SADLER 0    161.00    2  1    -19.6    10.1                   12   187
                                                                          2069 HOWE 0      161.00    2  1    -49.6   -29.8                   31   187

    2017 PANHANDLE ~7500.00    2 1.0299  -41.3     0.0      0.0     0.0 -----------------------------------------------------------------------------
                              10 514.95            0.0      0.0   106.1   2018 PANHANDLE ~8161.00    2  1    -37.8    18.8  1.000UN          16   271
                                                                          2019 PANHANDLE ~920.000    2  1      0.0    -0.0  1.000UN           0   454
                                                                          2096 RALLS 1 0   500.00    2  1    -62.7   -88.8                    5  2020
                                                                          2127 MIAMI 0     500.00    2  1    100.5  -142.1                    9  2020

    2018 PANHANDLE ~8161.00    2 1.0210  -40.2     0.0      0.0     0.0 -----------------------------------------------------------------------------
                              10 164.39            0.0      0.0     0.0   2093 PANHANDLE~10161.00    2  1    -37.8    17.9                   22   187
                                                                          2017 PANHANDLE ~7500.00    2  1     37.8   -17.9  1.000LK          15   271

    2019 PANHANDLE ~920.000    2 1.0299  -41.3     0.0      0.0     0.0 -----------------------------------------------------------------------------
                              10 20.598            0.0      0.0     0.0   2017 PANHANDLE ~7500.00    2  1      0.0    -0.0  1.000LK           0   454

    2020 WICHITA F~12161.00    2 1.0019  -50.5     0.0     48.0     0.0 -----------------------------------------------------------------------------
                              11 161.30            0.0     13.6     0.0   2045 SHEPPARD A~1161.00    2  1    140.3   -18.1                   46   310
                                                                          2055 WICHITA FA~2161.00    2  1   -188.3     4.5                   46   409

...